/*--------------------------------*- C++ -*----------------------------------*\
| =========                 |                                                 |
| \\      /  F ield         | OpenFOAM: The Open Source CFD Toolbox           |
|  \\    /   O peration     | Version:  v2112                                 |
|   \\  /    A nd           | Website:  www.openfoam.com                      |
|    \\/     M anipulation  |                                                 |
\*---------------------------------------------------------------------------*/
FoamFile
{
    version     2.0;
    format      ascii;
    class       dictionary;
    object      dynamicMeshDict;
}
// * * * * * * * * * * * * * * * * * * * * * * * * * * * * * * * * * * * * * //

dynamicFvMesh   dynamicMotionSolverFvMesh;

motionSolverLibs (fvMotionSolvers);

motionSolver    solidBodyDisplacementLaplacian;

cellZone        innerCylinderSmall;

solidBodyDisplacementLaplacianCoeffs
{
    solidBodyMotionFunction  rotatingMotion;

    rotatingMotionCoeffs
    {
        origin      (0 0 0);
        axis        (0 1 0);
        omega       158; // rad/s
    }

    diffusivity inverseDistance 1
    (
        "propeller.*"
    );
}


// ************************************************************************* //
